<configuration>
    <input>
        <net-file value="../network/chicago.net.xml"/>
        <route-files value="../routes/chicago_medium.rou.xml"/>
    </input>

    <time>
        <begin value="0"/>
        <end value="3600"/>
    </time>

    <output>
        <tripinfo-output value="../../results/tripinfo_rl_medium_improved.xml"/>
        <edgedata-output value="../../results/edge_rl_medium_improved.xml"/>
    </output>
</configuration>