<?xml version="1.0" encoding="UTF-8"?>

<!-- generated on 2026-03-24 12:32:08.450306 by Eclipse SUMO randomTrips.py v1_26_0+0000-fa7df22d7f1
<configuration>
    <net-file value="simulation\network\chicago.net.xml"/>
    <output-trip-file value="simulation\routes\chicago_low.rou.xml"/>
    <period value="5.0"/>
</configuration>
-->

<routes xmlns:xsi="http://www.w3.org/2001/XMLSchema-instance" xsi:noNamespaceSchemaLocation="http://sumo.dlr.de/xsd/routes_file.xsd">
    <trip id="0" depart="0.00" from="433783094#0" to="-1217799538"/>
    <trip id="1" depart="5.00" from="1051441727#3" to="1038761526#1"/>
    <trip id="2" depart="10.00" from="435724069#1" to="433784889#3"/>
    <trip id="3" depart="15.00" from="615645277#0" to="-24102433#4"/>
    <trip id="4" depart="20.00" from="236157091#1" to="-1287862806"/>
    <trip id="5" depart="25.00" from="1028907899#1" to="292339723#1"/>
    <trip id="6" depart="30.00" from="-1287862797" to="-833048839#3"/>
    <trip id="7" depart="35.00" from="433783097#2" to="315828468#1"/>
    <trip id="8" depart="40.00" from="1033716708#0" to="319345472#0"/>
    <trip id="9" depart="45.00" from="4476711#6" to="-1106630540#1"/>
    <trip id="10" depart="50.00" from="4476711#3" to="435724011#0"/>
    <trip id="11" depart="55.00" from="1191329600#0" to="-435724103#1"/>
    <trip id="12" depart="60.00" from="906195085" to="1191329603"/>
    <trip id="13" depart="65.00" from="-292339723#4" to="-294712584#1"/>
    <trip id="14" depart="70.00" from="4476711#4" to="435724069#1"/>
    <trip id="15" depart="75.00" from="134319745#4" to="316762110#3"/>
    <trip id="16" depart="80.00" from="4630404#4" to="381820996#3"/>
    <trip id="17" depart="85.00" from="59410419#1" to="316764838#0"/>
    <trip id="18" depart="90.00" from="435724011#1" to="-236157125#4"/>
    <trip id="19" depart="95.00" from="1038761526#0" to="1067743360#3"/>
    <trip id="20" depart="100.00" from="-24091488#3" to="1049318468#2"/>
    <trip id="21" depart="105.00" from="-294712587" to="1051441730#0"/>
    <trip id="22" depart="110.00" from="433781990#0" to="134319745#0"/>
    <trip id="23" depart="115.00" from="1287862806" to="1002803297#1"/>
    <trip id="24" depart="120.00" from="1051441726#4" to="805924007#0"/>
    <trip id="25" depart="125.00" from="433783097#0" to="372671686#1"/>
    <trip id="26" depart="130.00" from="-519223975" to="435724069#1"/>
    <trip id="27" depart="135.00" from="-445290295#2" to="1351951431#6"/>
    <trip id="28" depart="140.00" from="973275640#1" to="433783096#1"/>
    <trip id="29" depart="145.00" from="316762110#1" to="435558491#1"/>
    <trip id="30" depart="150.00" from="519223973#1" to="435724112#1"/>
    <trip id="31" depart="155.00" from="1038761526#1" to="-134319745#1"/>
    <trip id="32" depart="160.00" from="1127665632#2" to="1051441727#3"/>
    <trip id="33" depart="165.00" from="-973275640#0" to="833035173#2"/>
    <trip id="34" depart="170.00" from="59670543#1" to="1190700428#0"/>
    <trip id="35" depart="175.00" from="657718778#2" to="24090845#3"/>
    <trip id="36" depart="180.00" from="1051441726#2" to="1049318472#0"/>
    <trip id="37" depart="185.00" from="316762111#0" to="1051441726#6"/>
    <trip id="38" depart="190.00" from="316764838#0" to="615900433#5"/>
    <trip id="39" depart="195.00" from="1449477173#4" to="1035941401#0"/>
    <trip id="40" depart="200.00" from="998704232#0" to="292339723#5"/>
    <trip id="41" depart="205.00" from="-292339723#2" to="-23825858#0"/>
    <trip id="42" depart="210.00" from="-316762111#3" to="433781984#1"/>
    <trip id="43" depart="215.00" from="445290295#0" to="236157423#0"/>
    <trip id="44" depart="220.00" from="-24090845#11" to="1362586127"/>
    <trip id="45" depart="225.00" from="931237139#0" to="59667608"/>
    <trip id="46" depart="230.00" from="-1127665632#0" to="435724044#1"/>
    <trip id="47" depart="235.00" from="1051441726#4" to="433783096#1"/>
    <trip id="48" depart="240.00" from="-316762111#5" to="23825858#0"/>
    <trip id="49" depart="245.00" from="24071819#1" to="841064474#2"/>
    <trip id="50" depart="250.00" from="59670543#1" to="1051441726#7"/>
    <trip id="51" depart="255.00" from="24613631#0" to="-59667619#5"/>
    <trip id="52" depart="260.00" from="657718778#0" to="59667619#4"/>
    <trip id="53" depart="265.00" from="1067743360#6" to="433783095#2"/>
    <trip id="54" depart="270.00" from="337681340#1" to="-435724099#1"/>
    <trip id="55" depart="275.00" from="435724092#0" to="314944796#1"/>
    <trip id="56" depart="280.00" from="435724109#2" to="294839950#4"/>
    <trip id="57" depart="285.00" from="-1033716708#0" to="1190700430#1"/>
    <trip id="58" depart="290.00" from="-1194188298#1" to="793372646#2"/>
    <trip id="59" depart="295.00" from="59672850" to="5010709#1"/>
    <trip id="60" depart="300.00" from="1106630540#2" to="-24071819#0"/>
    <trip id="61" depart="305.00" from="59670543#3" to="833048839#0"/>
    <trip id="62" depart="310.00" from="-24102433#2" to="24213759#4"/>
    <trip id="63" depart="315.00" from="-24090845#4" to="435724099#0"/>
    <trip id="64" depart="320.00" from="435724093#0" to="-433784890#0"/>
    <trip id="65" depart="325.00" from="24091488#0" to="316762110#1"/>
    <trip id="66" depart="330.00" from="1051441726#3" to="59670543#0"/>
    <trip id="67" depart="335.00" from="313874092" to="435724069#1"/>
    <trip id="68" depart="340.00" from="-833048839#0" to="1137122252#1"/>
    <trip id="69" depart="345.00" from="23700520#4" to="294582657#5"/>
    <trip id="70" depart="350.00" from="1191328879#3" to="319345471#1"/>
    <trip id="71" depart="355.00" from="1049318466#0" to="1035941401#1"/>
    <trip id="72" depart="360.00" from="-24090845#5" to="433783093#0"/>
    <trip id="73" depart="365.00" from="59407132#3" to="-24090845#6"/>
    <trip id="74" depart="370.00" from="1049318468#1" to="433784884#9"/>
    <trip id="75" depart="375.00" from="1002803297#1" to="-435558488#0"/>
    <trip id="76" depart="380.00" from="805911051#0" to="316764836#0"/>
    <trip id="77" depart="385.00" from="24090845#8" to="435724119#1"/>
    <trip id="78" depart="390.00" from="4476711#5" to="-798192665#1"/>
    <trip id="79" depart="395.00" from="-294712584#1" to="23700520#5"/>
    <trip id="80" depart="400.00" from="435724044#2" to="433784889#1"/>
    <trip id="81" depart="405.00" from="934416474#0" to="-294712584#3"/>
    <trip id="82" depart="410.00" from="145846236#1" to="1191329605#0"/>
    <trip id="83" depart="415.00" from="59410419#1" to="1049318473#0"/>
    <trip id="84" depart="420.00" from="-683816243#1" to="24075632#2"/>
    <trip id="85" depart="425.00" from="236157091#1" to="1051441730#0"/>
    <trip id="86" depart="430.00" from="1049318470#0" to="772541923#1"/>
    <trip id="87" depart="435.00" from="23825858#0" to="59667608"/>
    <trip id="88" depart="440.00" from="315828468#1" to="-23825858#3"/>
    <trip id="89" depart="445.00" from="998704232#2" to="519223973#0"/>
    <trip id="90" depart="450.00" from="931220593#2" to="784657906#2"/>
    <trip id="91" depart="455.00" from="5263032#2" to="-519223973#1"/>
    <trip id="92" depart="460.00" from="24102433#4" to="1028907899#1"/>
    <trip id="93" depart="465.00" from="145846236#0" to="-24071819#1"/>
    <trip id="94" depart="470.00" from="1348645725#1" to="942851594"/>
    <trip id="95" depart="475.00" from="1051441726#3" to="435724119#1"/>
    <trip id="96" depart="480.00" from="24075632#0" to="236157423#1"/>
    <trip id="97" depart="485.00" from="906195085" to="991855435#0"/>
    <trip id="98" depart="490.00" from="316762110#0" to="435724041#2"/>
    <trip id="99" depart="495.00" from="-435724099#0" to="1083341324"/>
    <trip id="100" depart="500.00" from="931220593#1" to="316764839#0"/>
    <trip id="101" depart="505.00" from="313874093#1" to="435724088#0"/>
    <trip id="102" depart="510.00" from="-23887717#3" to="316764839#5"/>
    <trip id="103" depart="515.00" from="24952967" to="59407132#0"/>
    <trip id="104" depart="520.00" from="-435724103#0" to="917825059#2"/>
    <trip id="105" depart="525.00" from="-24091488#3" to="-683816244"/>
    <trip id="106" depart="530.00" from="319345471#1" to="433784889#2"/>
    <trip id="107" depart="535.00" from="615644380#0" to="1049318471#3"/>
    <trip id="108" depart="540.00" from="319345471#0" to="381820998#0"/>
    <trip id="109" depart="545.00" from="236157077" to="316764839#4"/>
    <trip id="110" depart="550.00" from="-833048839#3" to="435724041#0"/>
    <trip id="111" depart="555.00" from="433784884#7" to="1106630540#2"/>
    <trip id="112" depart="560.00" from="1127665632#2" to="435724090#0"/>
    <trip id="113" depart="565.00" from="-24090845#7" to="24090845#3"/>
    <trip id="114" depart="570.00" from="998704232#1" to="991855435#1"/>
    <trip id="115" depart="575.00" from="-24090845#7" to="1028907899#1"/>
    <trip id="116" depart="580.00" from="1051441726#3" to="805911049#1"/>
    <trip id="117" depart="585.00" from="59673547#1" to="59673547#1"/>
    <trip id="118" depart="590.00" from="1287862799#1" to="-445290295#0"/>
    <trip id="119" depart="595.00" from="48785308#0" to="435724032#2"/>
    <trip id="120" depart="600.00" from="33917148" to="973275640#0"/>
    <trip id="121" depart="605.00" from="433783935#0" to="-1106630541#1"/>
    <trip id="122" depart="610.00" from="4477285#0" to="1106630540#1"/>
    <trip id="123" depart="615.00" from="433784882#4" to="805924008"/>
    <trip id="124" depart="620.00" from="-434705479" to="-316764835#1"/>
    <trip id="125" depart="625.00" from="-316762111#1" to="316762110#4"/>
    <trip id="126" depart="630.00" from="435724038" to="-934416474#0"/>
    <trip id="127" depart="635.00" from="433781984#2" to="1051441726#7"/>
    <trip id="128" depart="640.00" from="519223975" to="-292339723#4"/>
    <trip id="129" depart="645.00" from="-1049318473#1" to="435724109#1"/>
    <trip id="130" depart="650.00" from="433783093#0" to="1051441726#5"/>
    <trip id="131" depart="655.00" from="435724077#0" to="316762110#2"/>
    <trip id="132" depart="660.00" from="236157125#3" to="-1106630541#2"/>
    <trip id="133" depart="665.00" from="-24090845#9" to="59678310#1"/>
    <trip id="134" depart="670.00" from="615900441#0" to="315828468#2"/>
    <trip id="135" depart="675.00" from="48785308#1" to="316764839#3"/>
    <trip id="136" depart="680.00" from="-435724069#0" to="-433783936"/>
    <trip id="137" depart="685.00" from="1106630540#2" to="615900435#0"/>
    <trip id="138" depart="690.00" from="4476710#0" to="59667608"/>
    <trip id="139" depart="695.00" from="615900433#5" to="1015181072"/>
    <trip id="140" depart="700.00" from="1049318470#0" to="-315828468#0"/>
    <trip id="141" depart="705.00" from="145846251#1" to="381820998#1"/>
    <trip id="142" depart="710.00" from="-435724077#1" to="793372647"/>
    <trip id="143" depart="715.00" from="59667608" to="932951023#0"/>
    <trip id="144" depart="720.00" from="4476711#8" to="59673605#1"/>
    <trip id="145" depart="725.00" from="1190700430#1" to="793372647"/>
    <trip id="146" depart="730.00" from="4476711#0" to="59667618#2"/>
    <trip id="147" depart="735.00" from="4476711#8" to="1051441727#2"/>
    <trip id="148" depart="740.00" from="435724113#0" to="-316762111#1"/>
    <trip id="149" depart="745.00" from="59667619#4" to="59410419#2"/>
    <trip id="150" depart="750.00" from="1033816803#0" to="4543179#0"/>
    <trip id="151" depart="755.00" from="24090845#1" to="1106630541#4"/>
    <trip id="152" depart="760.00" from="4476710#0" to="1049318467#2"/>
    <trip id="153" depart="765.00" from="-1196365958" to="-805924007#0"/>
    <trip id="154" depart="770.00" from="1190700429#2" to="59667618#2"/>
    <trip id="155" depart="775.00" from="931220593#0" to="1051441730#1"/>
    <trip id="156" depart="780.00" from="433783094#2" to="145857414#1"/>
    <trip id="157" depart="785.00" from="805924007#1" to="-316764835#1"/>
    <trip id="158" depart="790.00" from="931220593#3" to="-59667619#5"/>
    <trip id="159" depart="795.00" from="917825059#4" to="1051441727#1"/>
    <trip id="160" depart="800.00" from="-316762111#2" to="23825858#0"/>
    <trip id="161" depart="805.00" from="337681339#2" to="292339724"/>
    <trip id="162" depart="810.00" from="1351951431#3" to="316764838#0"/>
    <trip id="163" depart="815.00" from="1049318472#1" to="435724035#0"/>
    <trip id="164" depart="820.00" from="-1033716708#1" to="784657906#2"/>
    <trip id="165" depart="825.00" from="312901458#1" to="435724044#0"/>
    <trip id="166" depart="830.00" from="435724077#1" to="433784888#0"/>
    <trip id="167" depart="835.00" from="1228801021#0" to="-24090845#5"/>
    <trip id="168" depart="840.00" from="433784884#0" to="1191329600#0"/>
    <trip id="169" depart="845.00" from="1127665632#0" to="56401002#1"/>
    <trip id="170" depart="850.00" from="435724039#1" to="1106630540#2"/>
    <trip id="171" depart="855.00" from="145846236#1" to="1067743360#9"/>
    <trip id="172" depart="860.00" from="-433783934#2" to="236157125#4"/>
    <trip id="173" depart="865.00" from="805924008" to="433784890#0"/>
    <trip id="174" depart="870.00" from="615900438#1" to="381820996#1"/>
    <trip id="175" depart="875.00" from="-1033716708#0" to="1067743360#11"/>
    <trip id="176" depart="880.00" from="236157423#0" to="316764839#1"/>
    <trip id="177" depart="885.00" from="433783935#0" to="24090845#9"/>
    <trip id="178" depart="890.00" from="23825858#0" to="1028907899#1"/>
    <trip id="179" depart="895.00" from="24090845#8" to="615900438#1"/>
    <trip id="180" depart="900.00" from="4476710#0" to="-56401002#0"/>
    <trip id="181" depart="905.00" from="-24102433#2" to="294582657#3"/>
    <trip id="182" depart="910.00" from="433781984#1" to="1191329602#1"/>
    <trip id="183" depart="915.00" from="4477285#1" to="435724089#1"/>
    <trip id="184" depart="920.00" from="-805924007#0" to="-1196365958"/>
    <trip id="185" depart="925.00" from="1049318469#2" to="24102433#2"/>
    <trip id="186" depart="930.00" from="56237893#1" to="-24090845#8"/>
    <trip id="187" depart="935.00" from="163148296#1" to="433781990#0"/>
    <trip id="188" depart="940.00" from="-793372647" to="435657098#1"/>
    <trip id="189" depart="945.00" from="24213759#5" to="1049318470#0"/>
    <trip id="190" depart="950.00" from="433784301#0" to="-1106630540#0"/>
    <trip id="191" depart="955.00" from="435724084#3" to="435724109#0"/>
    <trip id="192" depart="960.00" from="-316762111#0" to="23700520#0"/>
    <trip id="193" depart="965.00" from="-59667618#0" to="917825059#0"/>
    <trip id="194" depart="970.00" from="294582657#1" to="-23825858#3"/>
    <trip id="195" depart="975.00" from="1049318469#6" to="56401002#1"/>
    <trip id="196" depart="980.00" from="24075632#1" to="4476711#5"/>
    <trip id="197" depart="985.00" from="433784884#3" to="973275640#1"/>
    <trip id="198" depart="990.00" from="319345471#1" to="833048839#3"/>
    <trip id="199" depart="995.00" from="615644380#1" to="372671697#1"/>
    <trip id="200" depart="1000.00" from="435724039#0" to="292339723#0"/>
    <trip id="201" depart="1005.00" from="615900433#3" to="435724084#3"/>
    <trip id="202" depart="1010.00" from="24091488#0" to="1051441726#3"/>
    <trip id="203" depart="1015.00" from="1049318469#5" to="433783095#0"/>
    <trip id="204" depart="1020.00" from="435724093#0" to="294712584#1"/>
    <trip id="205" depart="1025.00" from="381820998#0" to="1051441729#3"/>
    <trip id="206" depart="1030.00" from="-24091488#1" to="1067743360#10"/>
    <trip id="207" depart="1035.00" from="1051441727#1" to="1190700429#2"/>
    <trip id="208" depart="1040.00" from="313874093#0" to="-435724061"/>
    <trip id="209" depart="1045.00" from="1049318466#1" to="435562943"/>
    <trip id="210" depart="1050.00" from="435724022#1" to="-24090845#12"/>
    <trip id="211" depart="1055.00" from="145857414#1" to="315089479#1"/>
    <trip id="212" depart="1060.00" from="178424385" to="-973275640#1"/>
    <trip id="213" depart="1065.00" from="59407132#1" to="435724103#2"/>
    <trip id="214" depart="1070.00" from="1349641698" to="-1106630540#1"/>
    <trip id="215" depart="1075.00" from="1194188298#0" to="435724090#1"/>
    <trip id="216" depart="1080.00" from="236157077" to="435724088#0"/>
    <trip id="217" depart="1085.00" from="1033716708#1" to="1035941401#0"/>
    <trip id="218" depart="1090.00" from="23700520#2" to="-1287862806"/>
    <trip id="219" depart="1095.00" from="1191328879#1" to="434705479"/>
    <trip id="220" depart="1100.00" from="145846236#3" to="-519223973#0"/>
    <trip id="221" depart="1105.00" from="24090845#3" to="-433783936"/>
    <trip id="222" depart="1110.00" from="381820996#0" to="-1287862799#0"/>
    <trip id="223" depart="1115.00" from="-1287862799#0" to="433783097#1"/>
    <trip id="224" depart="1120.00" from="-435558488#0" to="24090845#6"/>
    <trip id="225" depart="1125.00" from="-23825858#2" to="1351951431#6"/>
    <trip id="226" depart="1130.00" from="435724091" to="1351951431#6"/>
    <trip id="227" depart="1135.00" from="435724087#1" to="5010709#1"/>
    <trip id="228" depart="1140.00" from="1049318471#3" to="-24102433#0"/>
    <trip id="229" depart="1145.00" from="-1194188298#1" to="314944796#1"/>
    <trip id="230" depart="1150.00" from="998704232#2" to="1194188300#0"/>
    <trip id="231" depart="1155.00" from="433783097#2" to="435724113#0"/>
    <trip id="232" depart="1160.00" from="433783934#1" to="435724091"/>
    <trip id="233" depart="1165.00" from="833048839#3" to="-833048839#3"/>
    <trip id="234" depart="1170.00" from="-1194188298#2" to="-435724099#0"/>
    <trip id="235" depart="1175.00" from="-433783934#1" to="433784884#9"/>
    <trip id="236" depart="1180.00" from="316762111#2" to="1033816803#1"/>
    <trip id="237" depart="1185.00" from="435562944" to="435724106"/>
    <trip id="238" depart="1190.00" from="-514505609#1" to="33917149#1"/>
    <trip id="239" depart="1195.00" from="435724084#0" to="-316764835#0"/>
    <trip id="240" depart="1200.00" from="4477285#2" to="931220592#0"/>
    <trip id="241" depart="1205.00" from="-316762111#2" to="-1287862797"/>
    <trip id="242" depart="1210.00" from="1106630541#4" to="433784890#0"/>
    <trip id="243" depart="1215.00" from="435724035#1" to="-24091488#1"/>
    <trip id="244" depart="1220.00" from="435559506#1" to="433781984#1"/>
    <trip id="245" depart="1225.00" from="-312901458#0" to="435724109#2"/>
    <trip id="246" depart="1230.00" from="-328987166#1" to="934416474#1"/>
    <trip id="247" depart="1235.00" from="435724112#0" to="1194188298#4"/>
    <trip id="248" depart="1240.00" from="236157125#3" to="1348645725#1"/>
    <trip id="249" depart="1245.00" from="255368071#0" to="1191598987"/>
    <trip id="250" depart="1250.00" from="5263032#2" to="4630404#3"/>
    <trip id="251" depart="1255.00" from="-315828468#2" to="917825059#2"/>
    <trip id="252" depart="1260.00" from="433781990#0" to="48785308#1"/>
    <trip id="253" depart="1265.00" from="435724032#0" to="23825858#1"/>
    <trip id="254" depart="1270.00" from="435724066#0" to="931220592#1"/>
    <trip id="255" depart="1275.00" from="1051441726#7" to="4476714#1"/>
    <trip id="256" depart="1280.00" from="312901458#1" to="24213759#2"/>
    <trip id="257" depart="1285.00" from="23700520#2" to="435724073#0"/>
    <trip id="258" depart="1290.00" from="1051441726#6" to="56720762#2"/>
    <trip id="259" depart="1295.00" from="48785305#0" to="-24102433#4"/>
    <trip id="260" depart="1300.00" from="59673547#1" to="1049318470#0"/>
    <trip id="261" depart="1305.00" from="24090845#13" to="372671690#1"/>
    <trip id="262" depart="1310.00" from="1348645725#1" to="-1287862799#1"/>
    <trip id="263" depart="1315.00" from="56400789" to="-683816242"/>
    <trip id="264" depart="1320.00" from="-973275640#1" to="4476711#2"/>
    <trip id="265" depart="1325.00" from="1191329600#0" to="59673605#0"/>
    <trip id="266" depart="1330.00" from="435657098#1" to="1051441729#4"/>
    <trip id="267" depart="1335.00" from="-1106630541#3" to="833048839#1"/>
    <trip id="268" depart="1340.00" from="-24102433#2" to="435724044#0"/>
    <trip id="269" depart="1345.00" from="24213759#0" to="435724093#0"/>
    <trip id="270" depart="1350.00" from="435559506#1" to="433783934#1"/>
    <trip id="271" depart="1355.00" from="24213759#2" to="4476710#4"/>
    <trip id="272" depart="1360.00" from="-292339723#4" to="1038761525"/>
    <trip id="273" depart="1365.00" from="435559506#2" to="1127665632#0"/>
    <trip id="274" depart="1370.00" from="316764837#0" to="24102433#0"/>
    <trip id="275" depart="1375.00" from="294839950#0" to="23700520#0"/>
    <trip id="276" depart="1380.00" from="435724079#1" to="1191329600#0"/>
    <trip id="277" depart="1385.00" from="435724011#0" to="1051441729#0"/>
    <trip id="278" depart="1390.00" from="1049318470#1" to="-328987166#1"/>
    <trip id="279" depart="1395.00" from="-721925648" to="-328987166#0"/>
    <trip id="280" depart="1400.00" from="-621319020#0" to="1033816803#0"/>
    <trip id="281" depart="1405.00" from="24102433#2" to="435724061"/>
    <trip id="282" depart="1410.00" from="932951023#0" to="294712587"/>
    <trip id="283" depart="1415.00" from="1051441729#5" to="-312901458#0"/>
    <trip id="284" depart="1420.00" from="-793372647" to="1049318467#2"/>
    <trip id="285" depart="1425.00" from="-59667619#1" to="-1127665632#2"/>
    <trip id="286" depart="1430.00" from="294839950#3" to="1051441729#3"/>
    <trip id="287" depart="1435.00" from="932951022#0" to="316762110#4"/>
    <trip id="288" depart="1440.00" from="435559515" to="-433783935#0"/>
    <trip id="289" depart="1445.00" from="59667619#0" to="24220202#3"/>
    <trip id="290" depart="1450.00" from="59667619#4" to="316764836#2"/>
    <trip id="291" depart="1455.00" from="24090845#5" to="23887717#1"/>
    <trip id="292" depart="1460.00" from="-59667619#5" to="-23825858#4"/>
    <trip id="293" depart="1465.00" from="4543073#1" to="145857414#2"/>
    <trip id="294" depart="1470.00" from="-24090845#8" to="433781990#0"/>
    <trip id="295" depart="1475.00" from="-23887717#0" to="-435724075"/>
    <trip id="296" depart="1480.00" from="316762111#1" to="1106630541#3"/>
    <trip id="297" depart="1485.00" from="435724092#2" to="33917149#0"/>
    <trip id="298" depart="1490.00" from="435724119#1" to="1049318467#0"/>
    <trip id="299" depart="1495.00" from="294582657#5" to="24090845#0"/>
    <trip id="300" depart="1500.00" from="23825858#0" to="59410419#3"/>
    <trip id="301" depart="1505.00" from="973275641" to="1106630541#4"/>
    <trip id="302" depart="1510.00" from="435724075" to="833048839#0"/>
    <trip id="303" depart="1515.00" from="-934416472" to="1028881432#0"/>
    <trip id="304" depart="1520.00" from="433784882#2" to="-435724103#2"/>
    <trip id="305" depart="1525.00" from="-56401002#1" to="-24091488#0"/>
    <trip id="306" depart="1530.00" from="-1049318473#0" to="24090845#0"/>
    <trip id="307" depart="1535.00" from="319345471#0" to="1067743360#5"/>
    <trip id="308" depart="1540.00" from="1049318466#1" to="435724034"/>
    <trip id="309" depart="1545.00" from="435724011#0" to="24090845#11"/>
    <trip id="310" depart="1550.00" from="435558491#0" to="772541923#1"/>
    <trip id="311" depart="1555.00" from="435724113#0" to="416548018#1"/>
    <trip id="312" depart="1560.00" from="433784882#2" to="805911049#1"/>
    <trip id="313" depart="1565.00" from="236157125#0" to="315828468#1"/>
    <trip id="314" depart="1570.00" from="433783097#0" to="621319020#1"/>
    <trip id="315" depart="1575.00" from="4630404#2" to="-24090845#7"/>
    <trip id="316" depart="1580.00" from="-5010709#1" to="1127665632#1"/>
    <trip id="317" depart="1585.00" from="435724084#1" to="316764835#1"/>
    <trip id="318" depart="1590.00" from="1056418851" to="-433783934#1"/>
    <trip id="319" depart="1595.00" from="435558491#1" to="435724011#1"/>
    <trip id="320" depart="1600.00" from="24213759#5" to="-24091488#5"/>
    <trip id="321" depart="1605.00" from="-1416652910#1" to="23700520#6"/>
    <trip id="322" depart="1610.00" from="1154063390" to="1049318473#1"/>
    <trip id="323" depart="1615.00" from="-292339723#3" to="917825059#3"/>
    <trip id="324" depart="1620.00" from="48785308#2" to="316764837#0"/>
    <trip id="325" depart="1625.00" from="841064474#0" to="998704232#2"/>
    <trip id="326" depart="1630.00" from="433784884#7" to="1051441728#0"/>
    <trip id="327" depart="1635.00" from="-1423843249#0" to="435724092#1"/>
    <trip id="328" depart="1640.00" from="657718778#3" to="-621319020#1"/>
    <trip id="329" depart="1645.00" from="316764838#1" to="433783094#1"/>
    <trip id="330" depart="1650.00" from="24213759#3" to="-292339723#3"/>
    <trip id="331" depart="1655.00" from="433784884#5" to="59410419#1"/>
    <trip id="332" depart="1660.00" from="1190700429#4" to="435562943"/>
    <trip id="333" depart="1665.00" from="1051441731#1" to="833048838#1"/>
    <trip id="334" depart="1670.00" from="4476714#0" to="316762110#1"/>
    <trip id="335" depart="1675.00" from="24075632#0" to="1190700428#0"/>
    <trip id="336" depart="1680.00" from="1190700428#0" to="931220593#3"/>
    <trip id="337" depart="1685.00" from="145846236#2" to="294582657#2"/>
    <trip id="338" depart="1690.00" from="973275640#0" to="433784882#3"/>
    <trip id="339" depart="1695.00" from="313874093#2" to="236157108"/>
    <trip id="340" depart="1700.00" from="-683816242" to="1287862806"/>
    <trip id="341" depart="1705.00" from="435724089#0" to="416548018#1"/>
    <trip id="342" depart="1710.00" from="435724090#1" to="-934416474#0"/>
    <trip id="343" depart="1715.00" from="315828468#0" to="793372646#1"/>
    <trip id="344" depart="1720.00" from="23700520#4" to="435724011#0"/>
    <trip id="345" depart="1725.00" from="-33116710#0" to="931237139#1"/>
    <trip id="346" depart="1730.00" from="337681340#1" to="1049318469#3"/>
    <trip id="347" depart="1735.00" from="-435724103#1" to="316762110#2"/>
    <trip id="348" depart="1740.00" from="315828468#2" to="-292339723#5"/>
    <trip id="349" depart="1745.00" from="24090845#10" to="-319345471#0"/>
    <trip id="350" depart="1750.00" from="48785305#2" to="24953260#2"/>
    <trip id="351" depart="1755.00" from="435724035#2" to="292339723#4"/>
    <trip id="352" depart="1760.00" from="1051441727#2" to="514505609#1"/>
    <trip id="353" depart="1765.00" from="932951024#1" to="1049318470#0"/>
    <trip id="354" depart="1770.00" from="315828468#2" to="1416652910#1"/>
    <trip id="355" depart="1775.00" from="769538379" to="292339723#3"/>
    <trip id="356" depart="1780.00" from="59672850" to="59667618#2"/>
    <trip id="357" depart="1785.00" from="1051441728#1" to="4476710#1"/>
    <trip id="358" depart="1790.00" from="255368071#1" to="4630404#2"/>
    <trip id="359" depart="1795.00" from="1051441729#4" to="1106630540#0"/>
    <trip id="360" depart="1800.00" from="316764839#1" to="998704232#2"/>
    <trip id="361" depart="1805.00" from="24213759#1" to="-435724075"/>
    <trip id="362" depart="1810.00" from="312901458#1" to="1194188298#2"/>
    <trip id="363" depart="1815.00" from="315828468#2" to="315089479#2"/>
    <trip id="364" depart="1820.00" from="24075632#0" to="1190700429#4"/>
    <trip id="365" depart="1825.00" from="-683816243#0" to="435657098#2"/>
    <trip id="366" depart="1830.00" from="316764833#2" to="1049318468#3"/>
    <trip id="367" depart="1835.00" from="435724108#1" to="-236157125#2"/>
    <trip id="368" depart="1840.00" from="435724079#0" to="435724033#0"/>
    <trip id="369" depart="1845.00" from="4476711#8" to="1423843249#1"/>
    <trip id="370" depart="1850.00" from="433784882#4" to="4630404#2"/>
    <trip id="371" depart="1855.00" from="932951024#1" to="24952967"/>
    <trip id="372" depart="1860.00" from="-1377694368" to="255368071#0"/>
    <trip id="373" depart="1865.00" from="316764839#3" to="59667619#4"/>
    <trip id="374" depart="1870.00" from="59670543#0" to="23887717#0"/>
    <trip id="375" depart="1875.00" from="294712584#1" to="24090845#13"/>
    <trip id="376" depart="1880.00" from="435724040#1" to="236157077"/>
    <trip id="377" depart="1885.00" from="433783935#0" to="-435724103#0"/>
    <trip id="378" depart="1890.00" from="24090845#5" to="931220593#2"/>
    <trip id="379" depart="1895.00" from="1191328879#4" to="435559515"/>
    <trip id="380" depart="1900.00" from="433783097#2" to="59407132#0"/>
    <trip id="381" depart="1905.00" from="56401002#0" to="59410419#2"/>
    <trip id="382" depart="1910.00" from="1349641698" to="1190700429#0"/>
    <trip id="383" depart="1915.00" from="435724039#0" to="435724093#1"/>
    <trip id="384" depart="1920.00" from="59667619#4" to="-1362586127"/>
    <trip id="385" depart="1925.00" from="-24090845#3" to="433783093#0"/>
    <trip id="386" depart="1930.00" from="721925648" to="998704232#0"/>
    <trip id="387" depart="1935.00" from="435724081#1" to="23825858#0"/>
    <trip id="388" depart="1940.00" from="-294712584#2" to="433783094#0"/>
    <trip id="389" depart="1945.00" from="59667619#4" to="23887717#3"/>
    <trip id="390" depart="1950.00" from="435559507#1" to="615900441#1"/>
    <trip id="391" depart="1955.00" from="-236157125#3" to="4476711#1"/>
    <trip id="392" depart="1960.00" from="1067743360#11" to="1351951431#2"/>
    <trip id="393" depart="1965.00" from="-435724066#0" to="312901453"/>
    <trip id="394" depart="1970.00" from="316762111#4" to="4476710#3"/>
    <trip id="395" depart="1975.00" from="-519223973#1" to="-24091488#3"/>
    <trip id="396" depart="1980.00" from="59667619#3" to="381820998#0"/>
    <trip id="397" depart="1985.00" from="1049318468#4" to="657718778#1"/>
    <trip id="398" depart="1990.00" from="-435724063#0" to="24090845#5"/>
    <trip id="399" depart="1995.00" from="1049318472#1" to="1051441726#0"/>
    <trip id="400" depart="2000.00" from="-1106630541#2" to="4476711#8"/>
    <trip id="401" depart="2005.00" from="615900435#1" to="433784890#0"/>
    <trip id="402" depart="2010.00" from="-435724103#0" to="23887717#2"/>
    <trip id="403" depart="2015.00" from="1191329603" to="319345471#1"/>